Circuit: * C:\Users\snigd\Downloads\EW-1\Draft6.asc


Date: Sun Dec  3 10:52:47 2023
Total elapsed time: 0.100 seconds.

tnom = 27
temp = 27
method = trap
totiter = 803
traniter = 0
tranpoints = 0
accept = 0
rejected = 0
matrix size = 4
fillins = 0
solver = Normal
Avg thread counts: 6.0/0.0/9.3/6.0
Matrix Compiler1:       7 opcodes  0.1/[0.1]/0.1
Matrix Compiler2: off  [0.1]/0.1/0.1

