Circuit: * C:\Users\snigd\Downloads\EW-1\Draft3.asc

Direct Newton iteration for .op point succeeded.
Semiconductor Device Operating Points:
                        --- Diodes ---
Name:      d1
Model:   tdzv6_2
Id:     -1.29e-11
Vd:     -1.36e+00
Req:     3.28e+10
CAP:     4.21e-10



Date: Thu Oct 26 15:33:41 2023
Total elapsed time: 0.141 seconds.

tnom = 27
temp = 27
method = trap
totiter = 19
traniter = 0
tranpoints = 0
accept = 0
rejected = 0
matrix size = 4
fillins = 0
solver = Normal
Avg thread counts: 12.0/0.0/12.0/12.0
Matrix Compiler1: 118 bytes object code size
Matrix Compiler2: 248 bytes object code size
