Circuit: * C:\Users\snigd\Downloads\EW-1\Lab-4 noise performance .asc

.OP point found by inspection.

Date: Thu Oct 26 19:13:50 2023
Total elapsed time: 0.027 seconds.

tnom = 27
temp = 27
method = trap
totiter = 0
traniter = 0
tranpoints = 0
accept = 0
rejected = 0
matrix size = 65
fillins = 100
solver = Normal
Avg thread counts: 12.0/0.0/0.0/12.0
Matrix Compiler1:     660 opcodes
Matrix Compiler2:     577 opcodes
