Questionable use of curly braces in ".noise v{n002} v lin 10 1k 10k"
    Error: undefined symbol in: "[n002]"
Circuit: * C:\Users\snigd\Downloads\EW-1\zener78L05.asc

Direct Newton iteration failed to find .op point.  (Use ".option noopiter" to skip.)
Starting Gmin stepping
Gmin = 10
Gmin = 1.07374
Gmin = 0.115292
Gmin = 0.0123794
Gmin = 0.00132923
Gmin = 0.000142725
Gmin = 1.5325e-05
Gmin = 1.6455e-06
Gmin = 1.76685e-07
Gmin = 1.89714e-08
Gmin = 2.03704e-09
Gmin = 2.18725e-10
Gmin = 2.34854e-11
Gmin = 2.52173e-12
Gmin = 2.70769e-13
Gmin = 0
Gmin stepping succeeded in finding the operating point.

.step c1=5e-06
.step c1=5e-05
.step c1=0.0005

Date: Tue Oct 24 20:08:41 2023
Total elapsed time: 0.637 seconds.

tnom = 27
temp = 27
method = trap
totiter = 430
traniter = 0
tranpoints = 0
accept = 0
rejected = 0
matrix size = 65
fillins = 96
solver = Normal
Avg thread counts: 9.0/0.0/12.0/8.8
Matrix Compiler1:     643 opcodes
Matrix Compiler2: 7.68 KB object code size  2.1/2.7/[1.6]

